Version 4
SHEET 1 1192 680
WIRE -320 -64 -528 -64
WIRE -96 -64 -320 -64
WIRE -192 0 -224 0
WIRE -96 0 -96 -64
WIRE -96 0 -128 0
WIRE -64 0 -96 0
WIRE 32 0 0 0
WIRE 128 0 32 0
WIRE 208 0 128 0
WIRE 224 0 208 0
WIRE 320 0 224 0
WIRE 432 0 320 0
WIRE 528 0 432 0
WIRE 832 0 624 0
WIRE -528 16 -528 -64
WIRE 128 32 128 0
WIRE 224 32 224 0
WIRE 320 32 320 0
WIRE -224 48 -224 0
WIRE -224 48 -272 48
WIRE -272 80 -272 48
WIRE -224 96 -224 48
WIRE -192 96 -224 96
WIRE -96 96 -128 96
WIRE -64 96 -96 96
WIRE 32 96 32 0
WIRE 32 96 0 96
WIRE 432 96 432 0
WIRE 464 96 432 96
WIRE 576 96 576 64
WIRE 576 96 544 96
WIRE 656 96 576 96
WIRE 832 96 832 0
WIRE 832 96 784 96
WIRE 896 96 832 96
WIRE 944 96 896 96
WIRE 944 112 944 96
WIRE 128 128 128 96
WIRE 224 128 224 96
WIRE 320 128 320 96
WIRE 576 128 576 96
WIRE 832 128 832 96
WIRE 432 144 432 96
WIRE -528 160 -528 96
WIRE -96 160 -96 96
WIRE -96 160 -528 160
WIRE 576 224 576 192
WIRE 720 224 720 144
WIRE 720 224 576 224
WIRE 832 224 832 192
WIRE 832 224 720 224
WIRE 944 224 944 192
WIRE 944 224 832 224
WIRE 432 256 432 224
WIRE 720 256 720 224
WIRE 432 352 432 320
FLAG 432 352 0
FLAG 128 128 0
FLAG -272 80 0
FLAG 720 256 0
FLAG -320 -64 V_AC
FLAG 208 0 V_RECT
FLAG 896 96 V_OUT
FLAG 224 128 0
FLAG 320 128 0
SYMBOL cap 112 32 R0
SYMATTR InstName C1
SYMATTR Value 2200µ
SYMBOL res 416 128 R0
SYMATTR InstName R1
SYMATTR Value 1k
SYMBOL diode -192 16 R270
WINDOW 0 32 32 VTop 2
WINDOW 3 0 32 VBottom 2
SYMATTR InstName D1
SYMATTR Value 1N4007
SYMBOL LED 416 256 R0
SYMATTR InstName D5
SYMBOL voltage -528 0 R0
WINDOW 123 0 0 Left 0
WINDOW 39 0 0 Left 0
SYMATTR InstName V1
SYMATTR Value SINE(0 21.213 60)
SYMBOL diode -64 16 R270
WINDOW 0 32 32 VTop 2
WINDOW 3 0 32 VBottom 2
SYMATTR InstName D2
SYMATTR Value 1N4007
SYMBOL diode -192 112 R270
WINDOW 0 32 32 VTop 2
WINDOW 3 0 32 VBottom 2
SYMATTR InstName D3
SYMATTR Value 1N4007
SYMBOL diode -64 112 R270
WINDOW 0 32 32 VTop 2
WINDOW 3 0 32 VBottom 2
SYMATTR InstName D4
SYMATTR Value 1N4007
SYMBOL reg3all 784 112 R0
SYMATTR InstName U1
SYMATTR SpiceModel LM7812
SYMBOL cap 560 128 R0
SYMATTR InstName C2
SYMATTR Value 0.33µ
SYMBOL cap 816 128 R0
SYMATTR InstName C3
SYMATTR Value 0.1µ
SYMBOL res 928 96 R0
SYMATTR InstName R2
SYMATTR Value 15
SYMBOL pnp 624 64 M270
SYMATTR InstName Q1
SYMATTR Value 2SAR512P
SYMBOL res 560 80 R90
WINDOW 0 0 56 VBottom 2
WINDOW 3 32 56 VTop 2
SYMATTR InstName R3
SYMATTR Value 3
SYMBOL cap 208 32 R0
SYMATTR InstName C4
SYMATTR Value 2200µ
SYMBOL cap 304 32 R0
SYMATTR InstName C5
SYMATTR Value 1µ
TEXT -544 288 Left 2 !.include 1N4007.lib
TEXT -544 312 Left 2 !.tran 0 25m 0 100n
