Version 4
SHEET 1 1176 680
WIRE -304 -64 -512 -64
WIRE -96 -64 -304 -64
WIRE -192 0 -224 0
WIRE -96 0 -96 -64
WIRE -96 0 -128 0
WIRE -64 0 -96 0
WIRE 32 0 0 0
WIRE 128 0 32 0
WIRE 208 0 128 0
WIRE 272 0 208 0
WIRE 384 0 272 0
WIRE 480 0 384 0
WIRE 784 0 576 0
WIRE -512 16 -512 -64
WIRE 128 32 128 0
WIRE 272 32 272 0
WIRE -224 48 -224 0
WIRE -224 48 -272 48
WIRE -272 80 -272 48
WIRE -224 96 -224 48
WIRE -192 96 -224 96
WIRE -96 96 -128 96
WIRE -64 96 -96 96
WIRE 32 96 32 0
WIRE 32 96 0 96
WIRE 384 96 384 0
WIRE 416 96 384 96
WIRE 528 96 528 64
WIRE 528 96 496 96
WIRE 608 96 528 96
WIRE 784 96 784 0
WIRE 784 96 736 96
WIRE 848 96 784 96
WIRE 896 96 848 96
WIRE 896 112 896 96
WIRE 128 128 128 96
WIRE 528 128 528 96
WIRE 784 128 784 96
WIRE 272 144 272 112
WIRE -512 160 -512 96
WIRE -96 160 -96 96
WIRE -96 160 -512 160
WIRE 528 224 528 192
WIRE 672 224 672 144
WIRE 672 224 528 224
WIRE 784 224 784 192
WIRE 784 224 672 224
WIRE 896 224 896 192
WIRE 896 224 784 224
WIRE 272 240 272 208
WIRE 672 256 672 224
FLAG 272 240 0
FLAG 128 128 0
FLAG -272 80 0
FLAG 672 256 0
FLAG -304 -64 V_AC
FLAG 208 0 V_RECT
FLAG 848 96 V_OUT
SYMBOL cap 112 32 R0
SYMATTR InstName C1
SYMATTR Value 4700µ
SYMBOL res 256 16 R0
SYMATTR InstName R1
SYMATTR Value 1k
SYMBOL diode -192 16 R270
WINDOW 0 32 32 VTop 2
WINDOW 3 0 32 VBottom 2
SYMATTR InstName D1
SYMATTR Value 1N4007
SYMBOL LED 256 144 R0
SYMATTR InstName D5
SYMBOL voltage -512 0 R0
WINDOW 123 0 0 Left 0
WINDOW 39 0 0 Left 0
SYMATTR InstName V1
SYMATTR Value SINE(0 21.213 60)
SYMBOL diode -64 16 R270
WINDOW 0 32 32 VTop 2
WINDOW 3 0 32 VBottom 2
SYMATTR InstName D2
SYMATTR Value 1N4007
SYMBOL diode -192 112 R270
WINDOW 0 32 32 VTop 2
WINDOW 3 0 32 VBottom 2
SYMATTR InstName D3
SYMATTR Value 1N4007
SYMBOL diode -64 112 R270
WINDOW 0 32 32 VTop 2
WINDOW 3 0 32 VBottom 2
SYMATTR InstName D4
SYMATTR Value 1N4007
SYMBOL reg3all 736 112 R0
SYMATTR InstName U1
SYMATTR SpiceModel LM7812
SYMBOL cap 512 128 R0
SYMATTR InstName C2
SYMATTR Value 0.33µ
SYMBOL cap 768 128 R0
SYMATTR InstName C3
SYMATTR Value 0.1µ
SYMBOL res 880 96 R0
SYMATTR InstName R2
SYMATTR Value 15
SYMBOL pnp 576 64 M270
SYMATTR InstName Q1
SYMATTR Value 2SA1774
SYMBOL res 512 80 R90
WINDOW 0 0 56 VBottom 2
WINDOW 3 32 56 VTop 2
SYMATTR InstName R3
SYMATTR Value 3
TEXT -544 288 Left 2 !.include 1N4007.lib
TEXT -544 312 Left 2 !.tran 0 25m 0 100n
